6)Montecarlo-LowVoltage/OpenDSS/Loads.dss
New load.LOAD1 phases=1 Bus1=34.1 kV=0.23 kW=1 pf=0.95  model=1 conn=wye status=varialble daily=Shape_1
New load.LOAD2 phases=1 Bus1=47.2 kV=0.23 kW=1 pf=0.95  model=1 conn=wye status=varialble daily=Shape_2
New load.LOAD3 phases=1 Bus1=70.1 kV=0.23 kW=1 pf=0.95  model=1 conn=wye status=varialble daily=Shape_3
New load.LOAD4 phases=1 Bus1=73.1 kV=0.23 kW=1 pf=0.95  model=1 conn=wye status=varialble daily=Shape_4
New load.LOAD5 phases=1 Bus1=74.1 kV=0.23 kW=1 pf=0.95  model=1 conn=wye status=varialble daily=Shape_5
New load.LOAD6 phases=1 Bus1=83.2 kV=0.23 kW=1 pf=0.95  model=1 conn=wye status=varialble daily=Shape_6
New load.LOAD7 phases=1 Bus1=178.2 kV=0.23 kW=1 pf=0.95  model=1 conn=wye status=varialble daily=Shape_7
New load.LOAD8 phases=1 Bus1=208.3 kV=0.23 kW=1 pf=0.95  model=1 conn=wye status=varialble daily=Shape_8
New load.LOAD9 phases=1 Bus1=225.1 kV=0.23 kW=1 pf=0.95  model=1 conn=wye status=varialble daily=Shape_9
New load.LOAD10 phases=1 Bus1=248.2 kV=0.23 kW=1 pf=0.95  model=1 conn=wye status=varialble daily=Shape_10
New load.LOAD11 phases=1 Bus1=249.2 kV=0.23 kW=1 pf=0.95  model=1 conn=wye status=varialble daily=Shape_11
New load.LOAD12 phases=1 Bus1=264.3 kV=0.23 kW=1 pf=0.95  model=1 conn=wye status=varialble daily=Shape_12
New load.LOAD13 phases=1 Bus1=276.2 kV=0.23 kW=1 pf=0.95  model=1 conn=wye status=varialble daily=Shape_13
New load.LOAD14 phases=1 Bus1=289.1 kV=0.23 kW=1 pf=0.95  model=1 conn=wye status=varialble daily=Shape_14
New load.LOAD15 phases=1 Bus1=314.2 kV=0.23 kW=1 pf=0.95  model=1 conn=wye status=varialble daily=Shape_15
New load.LOAD16 phases=1 Bus1=320.3 kV=0.23 kW=1 pf=0.95  model=1 conn=wye status=varialble daily=Shape_16
New load.LOAD17 phases=1 Bus1=327.3 kV=0.23 kW=1 pf=0.95  model=1 conn=wye status=varialble daily=Shape_17
New load.LOAD18 phases=1 Bus1=337.3 kV=0.23 kW=1 pf=0.95  model=1 conn=wye status=varialble daily=Shape_18
New load.LOAD19 phases=1 Bus1=342.3 kV=0.23 kW=1 pf=0.95  model=1 conn=wye status=varialble daily=Shape_19
New load.LOAD20 phases=1 Bus1=349.1 kV=0.23 kW=1 pf=0.95  model=1 conn=wye status=varialble daily=Shape_20
New load.LOAD21 phases=1 Bus1=387.1 kV=0.23 kW=1 pf=0.95  model=1 conn=wye status=varialble daily=Shape_21
New load.LOAD22 phases=1 Bus1=388.1 kV=0.23 kW=1 pf=0.95  model=1 conn=wye status=varialble daily=Shape_22
New load.LOAD23 phases=1 Bus1=406.2 kV=0.23 kW=1 pf=0.95  model=1 conn=wye status=varialble daily=Shape_23
New load.LOAD24 phases=1 Bus1=458.3 kV=0.23 kW=1 pf=0.95  model=1 conn=wye status=varialble daily=Shape_24
New load.LOAD25 phases=1 Bus1=502.1 kV=0.23 kW=1 pf=0.95  model=1 conn=wye status=varialble daily=Shape_25
New load.LOAD26 phases=1 Bus1=522.2 kV=0.23 kW=1 pf=0.95  model=1 conn=wye status=varialble daily=Shape_26
New load.LOAD27 phases=1 Bus1=539.3 kV=0.23 kW=1 pf=0.95  model=1 conn=wye status=varialble daily=Shape_27
New load.LOAD28 phases=1 Bus1=556.3 kV=0.23 kW=1 pf=0.95  model=1 conn=wye status=varialble daily=Shape_28
New load.LOAD29 phases=1 Bus1=562.1 kV=0.23 kW=1 pf=0.95  model=1 conn=wye status=varialble daily=Shape_29
New load.LOAD30 phases=1 Bus1=563.1 kV=0.23 kW=1 pf=0.95  model=1 conn=wye status=varialble daily=Shape_30
New load.LOAD31 phases=1 Bus1=611.1 kV=0.23 kW=1 pf=0.95  model=1 conn=wye status=varialble daily=Shape_31
New load.LOAD32 phases=1 Bus1=614.3 kV=0.23 kW=1 pf=0.95  model=1 conn=wye status=varialble daily=Shape_32
New load.LOAD33 phases=1 Bus1=619.3 kV=0.23 kW=1 pf=0.95  model=1 conn=wye status=varialble daily=Shape_33
New load.LOAD34 phases=1 Bus1=629.1 kV=0.23 kW=1 pf=0.95  model=1 conn=wye status=varialble daily=Shape_34
New load.LOAD35 phases=1 Bus1=639.2 kV=0.23 kW=1 pf=0.95  model=1 conn=wye status=varialble daily=Shape_35
New load.LOAD36 phases=1 Bus1=676.2 kV=0.23 kW=1 pf=0.95  model=1 conn=wye status=varialble daily=Shape_36
New load.LOAD37 phases=1 Bus1=682.2 kV=0.23 kW=1 pf=0.95  model=1 conn=wye status=varialble daily=Shape_37
New load.LOAD38 phases=1 Bus1=688.2 kV=0.23 kW=1 pf=0.95  model=1 conn=wye status=varialble daily=Shape_38
New load.LOAD39 phases=1 Bus1=701.3 kV=0.23 kW=1 pf=0.95  model=1 conn=wye status=varialble daily=Shape_39
New load.LOAD40 phases=1 Bus1=702.2 kV=0.23 kW=1 pf=0.95  model=1 conn=wye status=varialble daily=Shape_40
New load.LOAD41 phases=1 Bus1=755.2 kV=0.23 kW=1 pf=0.95  model=1 conn=wye status=varialble daily=Shape_41
New load.LOAD42 phases=1 Bus1=778.3 kV=0.23 kW=1 pf=0.95  model=1 conn=wye status=varialble daily=Shape_42
New load.LOAD43 phases=1 Bus1=780.3 kV=0.23 kW=1 pf=0.95  model=1 conn=wye status=varialble daily=Shape_43
New load.LOAD44 phases=1 Bus1=785.2 kV=0.23 kW=1 pf=0.95  model=1 conn=wye status=varialble daily=Shape_44
New load.LOAD45 phases=1 Bus1=813.2 kV=0.23 kW=1 pf=0.95  model=1 conn=wye status=varialble daily=Shape_45
New load.LOAD46 phases=1 Bus1=817.1 kV=0.23 kW=1 pf=0.95  model=1 conn=wye status=varialble daily=Shape_46
New load.LOAD47 phases=1 Bus1=835.3 kV=0.23 kW=1 pf=0.95  model=1 conn=wye status=varialble daily=Shape_47
New load.LOAD48 phases=1 Bus1=860.1 kV=0.23 kW=1 pf=0.95  model=1 conn=wye status=varialble daily=Shape_48
New load.LOAD49 phases=1 Bus1=861.1 kV=0.23 kW=1 pf=0.95  model=1 conn=wye status=varialble daily=Shape_49
New load.LOAD50 phases=1 Bus1=886.2 kV=0.23 kW=1 pf=0.95  model=1 conn=wye status=varialble daily=Shape_50
New load.LOAD51 phases=1 Bus1=896.1 kV=0.23 kW=1 pf=0.95  model=1 conn=wye status=varialble daily=Shape_51
New load.LOAD52 phases=1 Bus1=898.1 kV=0.23 kW=1 pf=0.95  model=1 conn=wye status=varialble daily=Shape_52
New load.LOAD53 phases=1 Bus1=899.2 kV=0.23 kW=1 pf=0.95  model=1 conn=wye status=varialble daily=Shape_53
New load.LOAD54 phases=1 Bus1=900.1 kV=0.23 kW=1 pf=0.95  model=1 conn=wye status=varialble daily=Shape_54
New load.LOAD55 phases=1 Bus1=906.1 kV=0.23 kW=1 pf=0.95  model=1 conn=wye status=varialble daily=Shape_55